.subckt yeteeeer port1 port2
C port1 a 0.00021830923787939885
R a b 0.0013637522021065
L b port2 5.663774768291237e-10

