.subckt {nameval} port1 port2
C port1 a {capval}
R a b {resval}
L b port2 {indval}

